Version 4
SHEET 1 2592 2176
WIRE 1456 -688 1456 -736
WIRE 1456 -688 1312 -688
WIRE 1456 -656 1456 -688
WIRE 912 528 800 528
WIRE 800 816 800 528
WIRE 1024 816 800 816
WIRE 800 832 800 816
WIRE 1024 848 1024 816
WIRE 304 896 144 896
WIRE 496 912 368 912
WIRE 752 912 576 912
WIRE -128 928 -288 928
WIRE 0 928 -48 928
WIRE 304 928 0 928
WIRE 1024 944 1024 912
WIRE 0 976 0 928
WIRE -288 1008 -288 928
WIRE 144 1040 144 896
WIRE 800 1040 800 928
WIRE 800 1040 144 1040
WIRE 1056 1040 800 1040
WIRE 800 1104 800 1040
FLAG 1456 -816 +15V
FLAG 1456 -576 -5V
FLAG 1312 -688 0
FLAG 336 944 -5V
FLAG 336 880 +15V
FLAG -288 1088 0
FLAG 800 1184 0
FLAG 1024 944 0
FLAG 1056 1040 isense
FLAG 912 608 +15V
FLAG 0 1040 0
SYMBOL voltage 1456 -832 R0
SYMATTR InstName V1
SYMATTR Value 15
SYMBOL voltage 1456 -672 R0
SYMATTR InstName V2
SYMATTR Value 5
SYMBOL res 784 1088 R0
SYMATTR InstName R2
SYMATTR Value 1
SYMBOL OpAmps/LT1630 336 848 R0
SYMATTR InstName U2
SYMBOL res 592 896 R90
WINDOW 0 0 56 VBottom 2
WINDOW 3 32 56 VTop 2
SYMATTR InstName R5
SYMATTR Value 10
SYMBOL nmos 752 832 R0
SYMATTR InstName M2
SYMATTR Value BSG0811NDQ2
SYMBOL voltage -288 992 R0
SYMATTR InstName V5
SYMATTR Value 0
SYMATTR Value2 AC 1
SYMBOL cap 1008 848 R0
SYMATTR InstName C6
SYMATTR Value 47n
SYMBOL res 896 512 R0
SYMATTR InstName R1
SYMATTR Value 10
SYMBOL res -32 912 R90
WINDOW 0 0 56 VBottom 2
WINDOW 3 32 56 VTop 2
SYMATTR InstName R3
SYMATTR Value 1k
SYMBOL cap -16 976 R0
SYMATTR InstName C1
SYMATTR Value 100n
TEXT 480 -736 Left 2 !.ac dec 30 1k 10Meg
